simulator lang=spectre
include "ne.scs"
include "nfet_01v8.scs"
include "nfet_g5v0d10v5.scs"
include "npn_05v5_W1p00L1p00.scs"
include "pe.scs"
include "pfet_01v8.scs"
include "pfet_g5v0d10v5.scs"
