// Generated for: spectre
// Generated on: May  6 11:14:43 2025
// Design library name: Test_EE_140_240A_Final_Project
// Design cell name: EE_140_240A_Sp25_System
// Design view name: schematic
simulator lang=spectre
global 0
